@<TRIPOS>MOLECULE
18381
 47 50 0 0 0
SMALL
GASTEIGER

@<TRIPOS>ATOM
      1 CL          1.7543   -1.4304   -2.6861 Cl      1  UNL1       -0.0828
      2 CL          2.4437   -1.2622    2.7499 Cl      1  UNL1       -0.0828
      3 S          -1.3230    0.8795   -1.5973 S.3     1  UNL1       -0.1273
      4 O          -1.7573    0.3238    2.7519 O.2     1  UNL1       -0.2734
      5 O          -5.3728   -1.0327   -0.0333 O.3     1  UNL1       -0.4793
      6 OXT        -5.1784    0.9148    1.1351 O.2     1  UNL1       -0.2489
      7 O           1.4968    2.8642   -0.5342 O.2     1  UNL1       -0.2700
      8 O           4.9796    0.4906   -0.3907 O.2     1  UNL1       -0.3586
      9 N          -2.5706    1.0770    0.6683 N.am    1  UNL1       -0.2708
     10 N           0.6038    1.1885    0.7731 N.am    1  UNL1       -0.2976
     11 N           4.3114   -0.7215   -0.2674 N.ar    1  UNL1       -0.0772
     12 C          -1.6840    1.9220   -0.1372 C.3     1  UNL1        0.1005
     13 C          -2.9993    0.0752   -1.4856 C.3     1  UNL1        0.0417
     14 CA         -3.2508   -0.0338    0.0338 C.3     1  UNL1        0.1379
     15 CA         -0.6794    1.8605    1.0216 C.3     1  UNL1        0.1279
     16 C          -1.7225    0.9759    1.7330 C.2     1  UNL1        0.2402
     17 C          -4.0007    0.9650   -2.2347 C.3     1  UNL1       -0.0484
     18 C          -2.9330   -1.3056   -2.1405 C.3     1  UNL1       -0.0484
     19 C          -4.6855    0.0306    0.4506 C.2     1  UNL1        0.3269
     20 C           1.6177    1.7591   -0.0062 C.2     1  UNL1        0.2502
     21 C           2.8548    0.9778   -0.1375 C.ar    1  UNL1        0.1061
     22 C           3.0253   -0.3934   -0.1153 C.ar    1  UNL1        0.1285
     23 C           4.0831    1.5068   -0.3097 C.ar    1  UNL1        0.1469
     24 C           2.0280   -1.4193    0.0432 C.ar    1  UNL1        0.0410
     25 C           4.6296    2.8661   -0.4225 C.3     1  UNL1       -0.0029
     26 C           1.3910   -1.9574   -1.0776 C.ar    1  UNL1        0.0517
     27 C           1.6931   -1.8816    1.3182 C.ar    1  UNL1        0.0517
     28 C           0.4251   -2.9519   -0.9243 C.ar    1  UNL1       -0.0427
     29 C           0.7271   -2.8761    1.4714 C.ar    1  UNL1       -0.0427
     30 C           0.0930   -3.4113    0.3501 C.ar    1  UNL1       -0.0590
     31 H          -2.1120    2.9060   -0.3488 H       1  UNL1        0.0640
     32 HA         -2.8221   -0.9552    0.4506 H       1  UNL1        0.0631
     33 HA         -0.5343    2.8181    1.5361 H       1  UNL1        0.0622
     34 H          -4.1038    1.9533   -1.7728 H       1  UNL1        0.0244
     35 H          -3.7009    1.1128   -3.2791 H       1  UNL1        0.0244
     36 H          -4.9972    0.5102   -2.2562 H       1  UNL1        0.0244
     37 H          -2.6300   -1.2391   -3.1920 H       1  UNL1        0.0244
     38 H          -2.2270   -1.9658   -1.6284 H       1  UNL1        0.0244
     39 H          -3.9105   -1.7995   -2.1181 H       1  UNL1        0.0244
     40 H           0.7973    0.3341    1.2789 H       1  UNL1        0.1499
     41 H          -6.3177   -1.0084    0.2289 H       1  UNL1        0.2951
     42 H           5.7221    2.8653   -0.3533 H       1  UNL1        0.0309
     43 H           4.3521    3.3115   -1.3828 H       1  UNL1        0.0309
     44 H           4.2455    3.5063    0.3778 H       1  UNL1        0.0309
     45 H          -0.0772   -3.3817   -1.7873 H       1  UNL1        0.0632
     46 H           0.4554   -3.2453    2.4571 H       1  UNL1        0.0632
     47 H          -0.6598   -4.1851    0.4693 H       1  UNL1        0.0618
@<TRIPOS>BOND
     1     1    26    1
     2     2    27    1
     3     3    12    1
     4     3    13    1
     5     4    16    2
     6     5    19    1
     7     5    41    1
     8     6    19    2
     9     7    20    2
    10     8    11   ar
    11     8    23   ar
    12     9    12    1
    13     9    14    1
    14     9    16   am
    15    10    15    1
    16    10    20   am
    17    10    40    1
    18    11    22   ar
    19    12    15    1
    20    12    31    1
    21    13    14    1
    22    13    17    1
    23    13    18    1
    24    14    19    1
    25    14    32    1
    26    15    16    1
    27    15    33    1
    28    17    34    1
    29    17    35    1
    30    17    36    1
    31    18    37    1
    32    18    38    1
    33    18    39    1
    34    20    21    1
    35    21    22   ar
    36    21    23   ar
    37    22    24    1
    38    23    25    1
    39    24    26   ar
    40    24    27   ar
    41    25    42    1
    42    25    43    1
    43    25    44    1
    44    26    28   ar
    45    27    29   ar
    46    28    30   ar
    47    28    45    1
    48    29    30   ar
    49    29    46    1
    50    30    47    1
