@<TRIPOS>MOLECULE
8982
 51 54 0 0 0
SMALL
GASTEIGER

@<TRIPOS>ATOM
      1 S           2.2171    1.3192    1.6253 S.3     1  UNL1       -0.1273
      2 O           1.9425   -0.7338   -2.2392 O.2     1  UNL1       -0.2734
      3 O           6.3138   -0.2082    0.1178 O.3     1  UNL1       -0.4793
      4 OXT         5.3783    1.8650   -0.0319 O.2     1  UNL1       -0.2489
      5 O          -1.0746   -0.0053   -2.2441 O.2     1  UNL1       -0.2700
      6 O          -1.0929   -2.3036    0.1222 O.3     1  UNL1       -0.4915
      7 N           3.0975    0.7044   -0.7686 N.am    1  UNL1       -0.2708
      8 N          -0.0644    0.8860   -0.3578 N.am    1  UNL1       -0.2976
      9 C           2.3341    1.7852   -0.1432 C.3     1  UNL1        0.1005
     10 C           3.2793   -0.1981    1.4412 C.3     1  UNL1        0.0417
     11 CA          3.9681   -0.0959    0.0618 C.3     1  UNL1        0.1379
     12 CA          1.1490    1.3695   -1.0302 C.3     1  UNL1        0.1279
     13 C           2.0720    0.2466   -1.5422 C.2     1  UNL1        0.2402
     14 C           4.2571   -0.2713    2.6184 C.3     1  UNL1       -0.0484
     15 C           2.3462   -1.4197    1.4926 C.3     1  UNL1       -0.0484
     16 C           5.2676    0.6504    0.0429 C.2     1  UNL1        0.3269
     17 C          -1.0900    0.2278   -1.0382 C.2     1  UNL1        0.2489
     18 C          -2.2457   -0.2233   -0.2224 C.ar    1  UNL1        0.0859
     19 C          -3.3453    0.6084   -0.0235 C.ar    1  UNL1       -0.0022
     20 C          -2.1735   -1.4957    0.3197 C.ar    1  UNL1        0.1332
     21 C          -4.4214    0.1291    0.7610 C.ar    1  UNL1       -0.0169
     22 C          -3.2315   -1.9670    1.0910 C.ar    1  UNL1       -0.0186
     23 C          -3.4179    1.8985   -0.5737 C.ar    1  UNL1       -0.0532
     24 C          -4.3489   -1.1610    1.3111 C.ar    1  UNL1       -0.0505
     25 C          -5.5382    0.9539    0.9721 C.ar    1  UNL1       -0.0540
     26 C          -4.5351    2.7044   -0.3537 C.ar    1  UNL1       -0.0611
     27 C          -5.5933    2.2331    0.4177 C.ar    1  UNL1       -0.0612
     28 C          -1.3287   -3.5528   -0.5230 C.3     1  UNL1        0.0868
     29 C          -0.1214   -3.9458   -1.3030 C.3     1  UNL1       -0.0307
     30 H           2.7456    2.7789   -0.3416 H       1  UNL1        0.0640
     31 HA          4.0976   -1.0767   -0.4108 H       1  UNL1        0.0631
     32 HA          0.9078    2.1040   -1.8079 H       1  UNL1        0.0622
     33 H           3.7286   -0.3814    3.5730 H       1  UNL1        0.0244
     34 H           4.9222   -1.1364    2.5157 H       1  UNL1        0.0244
     35 H           4.8848    0.6235    2.6954 H       1  UNL1        0.0244
     36 H           2.9232   -2.3465    1.3899 H       1  UNL1        0.0244
     37 H           1.8069   -1.4784    2.4455 H       1  UNL1        0.0244
     38 H           1.6029   -1.4147    0.6894 H       1  UNL1        0.0244
     39 H          -0.1747    1.0257    0.6439 H       1  UNL1        0.1499
     40 H           7.1748    0.2617    0.1074 H       1  UNL1        0.2951
     41 H          -3.1994   -2.9573    1.5373 H       1  UNL1        0.0654
     42 H          -2.6153    2.3063   -1.1833 H       1  UNL1        0.0624
     43 H          -5.1636   -1.5492    1.9190 H       1  UNL1        0.0625
     44 H          -6.3769    0.6062    1.5717 H       1  UNL1        0.0624
     45 H          -4.5791    3.7003   -0.7850 H       1  UNL1        0.0618
     46 H          -6.4629    2.8610    0.5884 H       1  UNL1        0.0618
     47 H          -1.5428   -4.3075    0.2417 H       1  UNL1        0.0694
     48 H          -2.1915   -3.4879   -1.1980 H       1  UNL1        0.0694
     49 H          -0.2646   -4.9115   -1.7961 H       1  UNL1        0.0262
     50 H           0.1097   -3.1957   -2.0670 H       1  UNL1        0.0262
     51 H           0.7587   -4.0124   -0.6544 H       1  UNL1        0.0262
@<TRIPOS>BOND
     1     1     9    1
     2     1    10    1
     3     2    13    2
     4     3    16    1
     5     3    40    1
     6     4    16    2
     7     5    17    2
     8     6    20    1
     9     6    28    1
    10     7     9    1
    11     7    11    1
    12     7    13   am
    13     8    12    1
    14     8    17   am
    15     8    39    1
    16     9    12    1
    17     9    30    1
    18    10    11    1
    19    10    14    1
    20    10    15    1
    21    11    16    1
    22    11    31    1
    23    12    13    1
    24    12    32    1
    25    14    33    1
    26    14    34    1
    27    14    35    1
    28    15    36    1
    29    15    37    1
    30    15    38    1
    31    17    18    1
    32    18    19   ar
    33    18    20   ar
    34    19    21   ar
    35    19    23   ar
    36    20    22   ar
    37    21    24   ar
    38    21    25   ar
    39    22    24   ar
    40    22    41    1
    41    23    26   ar
    42    23    42    1
    43    24    43    1
    44    25    27   ar
    45    25    44    1
    46    26    27   ar
    47    26    45    1
    48    27    46    1
    49    28    29    1
    50    28    47    1
    51    28    48    1
    52    29    49    1
    53    29    50    1
    54    29    51    1
