@<TRIPOS>MOLECULE
6869
 42 44 0 0 0
SMALL
GASTEIGER

@<TRIPOS>ATOM
      1 S          -2.0256   -1.2930   -1.1701 S.3     1  UNL1       -0.1273
      2 O          -2.0238    1.9566    1.8051 O.2     1  UNL1       -0.2734
      3 O          -5.9785   -0.6601    1.3753 O.3     1  UNL1       -0.4793
      4 OXT        -5.5629    1.3847    0.4576 O.2     1  UNL1       -0.2489
      5 O           1.5182    1.3613   -1.8035 O.2     1  UNL1       -0.2721
      6 O           3.6405   -0.0589   -0.9402 O.3     1  UNL1       -0.4828
      7 N          -3.0144    0.7985    0.0029 N.am    1  UNL1       -0.2708
      8 N           0.1548    0.5800   -0.0913 N.am    1  UNL1       -0.2989
      9 C          -2.1766    0.5307   -1.1697 C.3     1  UNL1        0.1005
     10 C          -3.7193   -1.4719   -0.4156 C.3     1  UNL1        0.0417
     11 CA         -3.8134   -0.2761    0.5564 C.3     1  UNL1        0.1379
     12 CA         -1.0592    1.3167   -0.4702 C.3     1  UNL1        0.1278
     13 C          -2.0645    1.5037    0.6837 C.2     1  UNL1        0.2402
     14 C          -4.7481   -1.4497   -1.5542 C.3     1  UNL1       -0.0484
     15 C          -3.7928   -2.8048    0.3313 C.3     1  UNL1       -0.0484
     16 C          -5.1907    0.2645    0.7736 C.2     1  UNL1        0.3269
     17 C           1.3517    0.6699   -0.8023 C.2     1  UNL1        0.2513
     18 C           2.4443   -0.1875   -0.2015 C.3     1  UNL1        0.1652
     19 C           4.8218   -0.2097   -0.2529 C.ar    1  UNL1        0.1212
     20 C           4.8659   -1.0432    0.8561 C.ar    1  UNL1       -0.0199
     21 C           5.9520    0.4744   -0.6785 C.ar    1  UNL1       -0.0199
     22 C           6.0642   -1.1954    1.5537 C.ar    1  UNL1       -0.0583
     23 C           7.1503    0.3220    0.0192 C.ar    1  UNL1       -0.0583
     24 C           7.2063   -0.5129    1.1352 C.ar    1  UNL1       -0.0615
     25 H          -2.5744    0.9756   -2.0864 H       1  UNL1        0.0640
     26 HA         -3.3905   -0.5196    1.5403 H       1  UNL1        0.0631
     27 HA         -0.8245    2.2727   -0.9548 H       1  UNL1        0.0622
     28 H          -4.5532   -2.2434   -2.2854 H       1  UNL1        0.0244
     29 H          -5.7628   -1.6153   -1.1755 H       1  UNL1        0.0244
     30 H          -4.7527   -0.4942   -2.0907 H       1  UNL1        0.0244
     31 H          -3.6317   -3.6533   -0.3443 H       1  UNL1        0.0244
     32 H          -3.0436   -2.8667    1.1292 H       1  UNL1        0.0244
     33 H          -4.7751   -2.9451    0.7949 H       1  UNL1        0.0244
     34 H           0.1335   -0.0335    0.7203 H       1  UNL1        0.1496
     35 H          -6.8879   -0.3245    1.5259 H       1  UNL1        0.2951
     36 H           2.5611    0.1528    0.8361 H       1  UNL1        0.0795
     37 H           2.1133   -1.2322   -0.2182 H       1  UNL1        0.0795
     38 H           4.0066   -1.6127    1.1962 H       1  UNL1        0.0654
     39 H           5.9115    1.1255   -1.5469 H       1  UNL1        0.0654
     40 H           6.1101   -1.8503    2.4189 H       1  UNL1        0.0619
     41 H           8.0397    0.8532   -0.3068 H       1  UNL1        0.0619
     42 H           8.1397   -0.6326    1.6774 H       1  UNL1        0.0618
@<TRIPOS>BOND
     1     1     9    1
     2     1    10    1
     3     2    13    2
     4     3    16    1
     5     3    35    1
     6     4    16    2
     7     5    17    2
     8     6    18    1
     9     6    19    1
    10     7     9    1
    11     7    11    1
    12     7    13   am
    13     8    12    1
    14     8    17   am
    15     8    34    1
    16     9    12    1
    17     9    25    1
    18    10    11    1
    19    10    14    1
    20    10    15    1
    21    11    16    1
    22    11    26    1
    23    12    13    1
    24    12    27    1
    25    14    28    1
    26    14    29    1
    27    14    30    1
    28    15    31    1
    29    15    32    1
    30    15    33    1
    31    17    18    1
    32    18    36    1
    33    18    37    1
    34    19    20   ar
    35    19    21   ar
    36    20    22   ar
    37    20    38    1
    38    21    23   ar
    39    21    39    1
    40    22    24   ar
    41    22    40    1
    42    23    24   ar
    43    23    41    1
    44    24    42    1
