@<TRIPOS>MOLECULE
33613
 44 46 0 0 0
SMALL
GASTEIGER

@<TRIPOS>ATOM
      1 S           0.8127   -0.5305    1.0470 S.3     1  UNL1       -0.1273
      2 O           2.5412    1.9384   -2.1377 O.2     1  UNL1       -0.2734
      3 O           5.1164   -1.8059   -0.0667 O.3     1  UNL1       -0.4793
      4 OXT         4.3753   -0.4801    1.6331 O.2     1  UNL1       -0.2489
      5 O          -1.1798    2.4440    1.6021 O.2     1  UNL1       -0.2737
      6 O          -4.1594   -3.4891    0.0834 O.3     1  UNL1       -0.5068
      7 N           2.7863    0.7498   -0.1147 N.am    1  UNL1       -0.2708
      8 N          -0.1496    1.9689   -0.4201 N.am    1  UNL1       -0.3002
      9 N          -3.5725    2.8271    0.2755 N.3     1  UNL1       -0.3163
     10 C           1.8063    1.0059    0.9417 C.3     1  UNL1        0.1005
     11 C           1.8293   -1.4420   -0.2179 C.3     1  UNL1        0.0417
     12 CA          3.1210   -0.6204   -0.4284 C.3     1  UNL1        0.1379
     13 CA          1.2349    2.1188    0.0479 C.3     1  UNL1        0.1277
     14 C           2.2954    1.6814   -0.9812 C.2     1  UNL1        0.2402
     15 C           2.0775   -2.8717    0.2742 C.3     1  UNL1       -0.0484
     16 C           1.0045   -1.4983   -1.5148 C.3     1  UNL1       -0.0484
     17 C           4.2478   -0.9379    0.5072 C.2     1  UNL1        0.3269
     18 C          -1.2582    2.1473    0.4110 C.2     1  UNL1        0.2350
     19 CA         -2.5838    1.9144   -0.3056 C.3     1  UNL1        0.1079
     20 C          -3.0064    0.4636   -0.2012 C.ar    1  UNL1       -0.0216
     21 C          -3.1874   -0.2708   -1.3592 C.ar    1  UNL1       -0.0532
     22 C          -3.2022   -0.0926    1.0502 C.ar    1  UNL1       -0.0532
     23 C          -3.5775   -1.6066   -1.2626 C.ar    1  UNL1       -0.0199
     24 C          -3.5921   -1.4285    1.1467 C.ar    1  UNL1       -0.0199
     25 C          -3.7798   -2.1854   -0.0097 C.ar    1  UNL1        0.1169
     26 H           2.2561    1.3404    1.8807 H       1  UNL1        0.0640
     27 HA          3.4766   -0.6650   -1.4646 H       1  UNL1        0.0631
     28 HA          1.4211    3.1321    0.4236 H       1  UNL1        0.0622
     29 H           1.1390   -3.4302    0.3738 H       1  UNL1        0.0244
     30 H           2.7069   -3.4212   -0.4352 H       1  UNL1        0.0244
     31 H           2.5758   -2.8963    1.2496 H       1  UNL1        0.0244
     32 H           1.5603   -2.0263   -2.2987 H       1  UNL1        0.0244
     33 H           0.0600   -2.0365   -1.3702 H       1  UNL1        0.0244
     34 H           0.7635   -0.5048   -1.9058 H       1  UNL1        0.0244
     35 H          -0.3223    1.7159   -1.3903 H       1  UNL1        0.1496
     36 HA         -2.4633    2.1960   -1.3593 H       1  UNL1        0.0605
     37 H           5.8621   -2.0269    0.5312 H       1  UNL1        0.2951
     38 H1         -4.4541    2.7374   -0.2289 H       1  UNL1        0.1192
     39 H2         -3.2689    3.7907    0.1369 H       1  UNL1        0.1192
     40 H          -3.0315    0.1684   -2.3400 H       1  UNL1        0.0622
     41 H          -3.0658    0.4817    1.9615 H       1  UNL1        0.0622
     42 H          -3.7211   -2.1915   -2.1670 H       1  UNL1        0.0654
     43 H          -3.7470   -1.8675    2.1286 H       1  UNL1        0.0654
     44 H          -4.2526   -3.7236    1.0227 H       1  UNL1        0.2921
@<TRIPOS>BOND
     1     1    10    1
     2     1    11    1
     3     2    14    2
     4     3    17    1
     5     3    37    1
     6     4    17    2
     7     5    18    2
     8     6    25    1
     9     6    44    1
    10     7    10    1
    11     7    12    1
    12     7    14   am
    13     8    13    1
    14     8    18   am
    15     8    35    1
    16     9    19    1
    17     9    38    1
    18     9    39    1
    19    10    13    1
    20    10    26    1
    21    11    12    1
    22    11    15    1
    23    11    16    1
    24    12    17    1
    25    12    27    1
    26    13    14    1
    27    13    28    1
    28    15    29    1
    29    15    30    1
    30    15    31    1
    31    16    32    1
    32    16    33    1
    33    16    34    1
    34    18    19    1
    35    19    20    1
    36    19    36    1
    37    20    21   ar
    38    20    22   ar
    39    21    23   ar
    40    21    40    1
    41    22    24   ar
    42    22    41    1
    43    23    25   ar
    44    23    42    1
    45    24    25   ar
    46    24    43    1
