b-CHEMBL1098067.mol2-000.sdf
     RDKit          3D

 11 12  0  0  0  0  0  0  0  0999 V2000
   -1.6816   -1.4285    0.4733 C   0  0  0  0  0  0  0  0  0  0  0  0
   -3.1510   -1.5266    0.8933 C   0  0  0  0  0  0  0  0  0  0  0  0
   -1.0855   -2.8354    0.3906 C   0  0  0  0  0  0  0  0  0  0  0  0
   -3.2203   -3.7862   -0.1656 C   0  0  0  0  0  0  0  0  0  0  0  0
   -3.7243   -0.3057   -2.9924 N   0  0  0  0  0  0  0  0  0  0  0  0
   -3.8986   -2.4160   -0.1043 C   0  0  2  0  0  0  0  0  0  0  0  0
   -3.8693   -1.7949   -1.4309 N   0  0  0  0  0  4  0  0  0  0  0  0
   -1.8267   -3.6275   -0.5982 N   0  0  0  0  0  0  0  0  0  0  0  0
   -3.9219   -1.4810   -3.6005 C   0  0  0  0  0  0  0  0  0  0  0  0
   -3.6916   -0.4831   -1.6990 C   0  0  0  0  0  0  0  0  0  0  0  0
   -4.0119   -2.4392   -2.6389 C   0  0  0  0  0  0  0  0  0  0  0  0
  1  2  1  0
  1  3  1  0
  2  6  1  0
  3  8  1  0
  4  6  1  0
  4  8  1  0
  5  9  4  0
  5 10  4  0
  6  7  1  0
  7 10  4  0
  7 11  4  0
  9 11  4  0
V   21 *
V   22 *
V   23 *
V   24 *
M  END

> <ATOMTYPES> 
C.3
C.3
C.3
C.3
N.ar
C.3
N.ar
N.3
C.ar
C.ar
C.ar

> <BRANCH @atom-number eligible-atmtype-to-connect> 
10 C.3
11 C.ar
8 C.3
9 C.3


> <fragments similar> 
/content/double-bond-output/output-chop-comb/b-CHEMBL1098067.mol2-000.sdf
$$$$
