b-CHEMBL1098067.mol2-001.sdf
     RDKit          3D

  6  6  0  0  0  0  0  0  0  0999 V2000
   -7.2853    1.9332    0.7618 C   0  0  0  0  0  0  0  0  0  0  0  0
   -6.7777    2.4365   -0.4214 C   0  0  0  0  0  0  0  0  0  0  0  0
   -6.5643    0.9981    1.4808 C   0  0  0  0  0  0  0  0  0  0  0  0
   -5.5491    2.0052   -0.8853 C   0  0  0  0  0  0  0  0  0  0  0  0
   -5.3377    0.5636    1.0146 C   0  0  0  0  0  0  0  0  0  0  0  0
   -4.8278    1.0708   -0.1659 C   0  0  0  0  0  0  0  0  0  0  0  0
  1  2  4  0
  1  3  4  0
  2  4  4  0
  3  5  4  0
  4  6  4  0
  5  6  4  0
V   12 *
M  END

> <ATOMTYPES> 
C.ar
C.ar
C.ar
C.ar
C.ar
C.ar

> <BRANCH @atom-number eligible-atmtype-to-connect> 
6 C.3


> <fragments similar> 
/content/double-bond-output/output-chop-comb/b-CHEMBL1098067.mol2-001.sdf
$$$$
