b-CHEMBL1098067.mol2-002.sdf
     RDKit          3D

 12 12  0  0  0  0  0  0  0  0999 V2000
   -4.2235   -3.8880   -2.8499 C   0  0  0  0  0  0  0  0  0  0  0  0
   -9.8333   -9.8506   -5.3362 O   0  0  0  0  0  0  0  0  0  0  0  0
   -9.3118   -7.2672   -4.9098 O   0  0  0  0  0  0  0  0  0  0  0  0
   -8.5883   -9.3677   -4.8652 N   0  0  0  0  0  0  0  0  0  0  0  0
   -3.3861   -6.1449   -2.7809 C   0  0  0  0  0  0  0  0  0  0  0  0
   -7.1188   -7.5464   -4.1888 C   0  0  0  0  0  0  0  0  0  0  0  0
   -4.5998   -6.6153   -3.2401 C   0  0  0  0  0  0  0  0  0  0  0  0
   -6.9367   -6.2243   -3.9994 C   0  0  0  0  0  0  0  0  0  0  0  0
   -3.1918   -4.7917   -2.5850 C   0  0  0  0  0  0  0  0  0  0  0  0
   -5.4531   -4.3537   -3.3073 C   0  0  0  0  0  0  0  0  0  0  0  0
   -8.4063   -8.0458   -4.6759 C   0  0  0  0  0  0  0  0  0  0  0  0
   -5.6422   -5.7222   -3.5096 C   0  0  0  0  0  0  0  0  0  0  0  0
  2  4  1  0
  3 11  2  0
  4 11  1  0
  5  7  4  0
  5  9  4  0
  6  8  2  3
  6 11  1  0
  7 12  4  0
  8 12  1  0
  9  1  4  0
 10 12  4  0
 10  1  4  0
V   13 *
M  END

> <ATOMTYPES> 
C.ar
O.3
O.2
N.am
C.ar
C.2
C.ar
C.2
C.ar
C.ar
C.2
C.ar

> <BRANCH @atom-number eligible-atmtype-to-connect> 
1 C.ar


> <fragments similar> 
/content/double-bond-output/output-chop-comb/b-CHEMBL1098067.mol2-002.sdf
$$$$
