@<TRIPOS>MOLECULE
*****
 65 68 0 0 0
SMALL
GASTEIGER

@<TRIPOS>ATOM
      1 C           0.1761   -4.8023   -1.3765 C.3     1  LIG1       -0.0524
      2 C          -4.0214   -1.7046   -5.0875 C.3     1  LIG1       -0.0203
      3 O          -9.8333   -9.8506   -5.3362 O.3     1  LIG1       -0.2949
      4 O          -9.3118   -7.2672   -4.9098 O.2     1  LIG1       -0.2687
      5 C          -1.6816   -1.4285    0.4733 C.3     1  LIG1       -0.0383
      6 C          -1.2028   -4.9508   -0.7305 C.3     1  LIG1       -0.0039
      7 C          -3.1510   -1.5266    0.8933 C.3     1  LIG1       -0.0297
      8 C          -1.0855   -2.8354    0.3906 C.3     1  LIG1       -0.0010
      9 C          -3.2203   -3.7862   -0.1656 C.3     1  LIG1        0.0198
     10 C          -3.4884    0.6006   -0.6718 C.3     1  LIG1        0.0308
     11 N          -8.5883   -9.3677   -4.8652 N.am    1  LIG1       -0.1940
     12 C          -7.2853    1.9332    0.7618 C.ar    1  LIG1       -0.0617
     13 C          -6.7777    2.4365   -0.4214 C.ar    1  LIG1       -0.0615
     14 C          -6.5643    0.9981    1.4808 C.ar    1  LIG1       -0.0615
     15 C          -3.3861   -6.1449   -2.7809 C.ar    1  LIG1       -0.0606
     16 C          -5.5491    2.0052   -0.8853 C.ar    1  LIG1       -0.0582
     17 C          -5.3377    0.5636    1.0146 C.ar    1  LIG1       -0.0582
     18 C          -7.1188   -7.5464   -4.1888 C.2     1  LIG1        0.0027
     19 C          -4.5998   -6.6153   -3.2401 C.ar    1  LIG1       -0.0546
     20 C          -6.9367   -6.2243   -3.9994 C.2     1  LIG1       -0.0496
     21 C          -3.1918   -4.7917   -2.5850 C.ar    1  LIG1       -0.0525
     22 C          -5.4531   -4.3537   -3.3073 C.ar    1  LIG1       -0.0454
     23 N          -3.7243   -0.3057   -2.9924 N.ar    1  LIG1       -0.2365
     24 C          -3.8986   -2.4160   -0.1043 C.3     1  LIG1        0.0489
     25 N          -3.8693   -1.7949   -1.4309 N.ar    1  LIG1       -0.3227
     26 N          -1.8267   -3.6275   -0.5982 N.3     1  LIG1       -0.3006
     27 C          -8.4063   -8.0458   -4.6759 C.2     1  LIG1        0.2593
     28 C          -3.9219   -1.4810   -3.6005 C.ar    1  LIG1        0.0642
     29 C          -4.8278    1.0708   -0.1659 C.ar    1  LIG1       -0.0401
     30 C          -5.6422   -5.7222   -3.5096 C.ar    1  LIG1       -0.0243
     31 C          -3.6916   -0.4831   -1.6990 C.ar    1  LIG1        0.1150
     32 C          -4.2235   -3.8880   -2.8499 C.ar    1  LIG1        0.0008
     33 C          -4.0119   -2.4392   -2.6389 C.ar    1  LIG1        0.0719
     34 H           0.6305   -5.7662   -1.4728 H       1  LIG1        0.0242
     35 H           0.7917   -4.1775   -0.7637 H       1  LIG1        0.0242
     36 H           0.0705   -4.3594   -2.3448 H       1  LIG1        0.0242
     37 H          -3.9139   -0.7697   -5.5967 H       1  LIG1        0.0293
     38 H          -4.9748   -2.1305   -5.3211 H       1  LIG1        0.0293
     39 H          -3.2461   -2.3724   -5.4004 H       1  LIG1        0.0293
     40 H          -9.7960  -10.8166   -5.4165 H       1  LIG1        0.2414
     41 H          -1.1409   -0.8529    1.1953 H       1  LIG1        0.0278
     42 H          -1.6125   -0.9527   -0.4826 H       1  LIG1        0.0278
     43 H          -1.0972   -5.3937    0.2378 H       1  LIG1        0.0424
     44 H          -1.8183   -5.5756   -1.3434 H       1  LIG1        0.0424
     45 H          -3.5878   -0.5498    0.8999 H       1  LIG1        0.0286
     46 H          -3.2183   -1.9491    1.8740 H       1  LIG1        0.0286
     47 H          -1.1535   -3.3077    1.3483 H       1  LIG1        0.0427
     48 H          -0.0591   -2.7694    0.0955 H       1  LIG1        0.0427
     49 H          -3.7404   -4.4101   -0.8621 H       1  LIG1        0.0447
     50 H          -3.2418   -4.2368    0.8047 H       1  LIG1        0.0447
     51 H          -2.9141    0.2151    0.1446 H       1  LIG1        0.0392
     52 H          -2.9674    1.4218   -1.1180 H       1  LIG1        0.0392
     53 H          -7.8557   -9.9976   -4.6760 H       1  LIG1        0.1825
     54 H          -8.2024    2.2555    1.1084 H       1  LIG1        0.0618
     55 H          -7.3160    3.1343   -0.9584 H       1  LIG1        0.0618
     56 H          -6.9419    0.6244    2.3656 H       1  LIG1        0.0618
     57 H          -2.6201   -6.8076   -2.5830 H       1  LIG1        0.0618
     58 H          -5.1703    2.3808   -1.7687 H       1  LIG1        0.0620
     59 H          -4.8026   -0.1395    1.5479 H       1  LIG1        0.0620
     60 H          -6.3508   -8.2067   -3.9905 H       1  LIG1        0.0670
     61 H          -4.7385   -7.6276   -3.3849 H       1  LIG1        0.0623
     62 H          -7.7046   -5.5640   -4.1977 H       1  LIG1        0.0625
     63 H          -2.2816   -4.4471   -2.2418 H       1  LIG1        0.0624
     64 H          -6.2211   -3.6907   -3.4959 H       1  LIG1        0.0630
     65 H          -4.9148   -2.5327    0.2098 H       1  LIG1        0.0541
@<TRIPOS>BOND
     1     1     6    1
     2     2    28    1
     3     3    11    1
     4     4    27    2
     5     5     7    1
     6     5     8    1
     7     6    26    1
     8     7    24    1
     9     8    26    1
    10     9    24    1
    11     9    26    1
    12    10    29    1
    13    10    31    1
    14    11    27   am
    15    12    13   ar
    16    12    14   ar
    17    13    16   ar
    18    14    17   ar
    19    15    19   ar
    20    15    21   ar
    21    16    29   ar
    22    17    29   ar
    23    18    20    2
    24    18    27    1
    25    19    30   ar
    26    20    30    1
    27    21    32   ar
    28    22    30   ar
    29    22    32   ar
    30    23    28   ar
    31    23    31   ar
    32    24    25    1
    33    25    31   ar
    34    25    33   ar
    35    28    33   ar
    36    32    33    1
    37     1    34    1
    38     1    35    1
    39     1    36    1
    40     2    37    1
    41     2    38    1
    42     2    39    1
    43     3    40    1
    44     5    41    1
    45     5    42    1
    46     6    43    1
    47     6    44    1
    48     7    45    1
    49     7    46    1
    50     8    47    1
    51     8    48    1
    52     9    49    1
    53     9    50    1
    54    10    51    1
    55    10    52    1
    56    11    53    1
    57    12    54    1
    58    13    55    1
    59    14    56    1
    60    15    57    1
    61    16    58    1
    62    17    59    1
    63    18    60    1
    64    19    61    1
    65    20    62    1
    66    21    63    1
    67    22    64    1
    68    24    65    1
