l-CHEMBL1098067.mol2-002.sdf
     RDKit          3D

  3  2  0  0  0  0  0  0  0  0999 V2000
   -3.4884    0.6006   -0.6718 C   0  0  0  0  0  0  0  0  0  0  0  0
   -4.8278    1.0708   -0.1659 C   0  0  0  0  0  0  0  0  0  0  0  0
   -3.6916   -0.4831   -1.6990 C   0  0  0  0  0  0  0  0  0  0  0  0
  1  2  1  0
  1  3  1  0
M  END

> <MAX-NUMBER-Of-CONTACTS ATOMTYPES> 
0 C.3
2 C.ar
2 C.ar

$$$$
