l-CHEMBL1098067.mol2-001.sdf
     RDKit          3D

  2  1  0  0  0  0  0  0  0  0999 V2000
   -4.0214   -1.7046   -5.0875 C   0  0  0  0  0  0  0  0  0  0  0  0
   -3.9219   -1.4810   -3.6005 C   0  0  0  0  0  0  0  0  0  0  0  0
  1  2  1  0
M  END

> <MAX-NUMBER-Of-CONTACTS ATOMTYPES> 
0 C.3
2 C.ar

$$$$
