l-CHEMBL1098067.mol2-000.sdf
     RDKit          3D

  3  2  0  0  0  0  0  0  0  0999 V2000
    0.1761   -4.8023   -1.3765 C   0  0  0  0  0  0  0  0  0  0  0  0
   -1.2028   -4.9508   -0.7305 C   0  0  0  0  0  0  0  0  0  0  0  0
   -1.8267   -3.6275   -0.5982 N   0  0  0  0  0  0  0  0  0  0  0  0
  1  2  1  0
  2  3  1  0
M  END

> <MAX-NUMBER-Of-CONTACTS ATOMTYPES> 
0 C.3
0 C.3
2 N.3

$$$$
