b-CHEMBL9070.mol2-003.sdf
     RDKit          3D

  6  6  0  0  0  0  0  0  0  0999 V2000
    4.2900   -3.3430   -1.2178 C   0  0  0  0  0  0  0  0  0  0  0  0
    3.3972   -1.7205    0.2997 C   0  0  0  0  0  0  0  0  0  0  0  0
    5.5325   -2.7440   -1.1273 C   0  0  0  0  0  0  0  0  0  0  0  0
    4.6407   -1.1240    0.3936 C   0  0  0  0  0  0  0  0  0  0  0  0
    3.2230   -2.8330   -0.5021 C   0  0  0  0  0  0  0  0  0  0  0  0
    5.7079   -1.6346   -0.3214 C   0  0  0  0  0  0  0  0  0  0  0  0
  1  3  4  0
  1  5  4  0
  2  4  4  0
  2  5  4  0
  3  6  4  0
  4  6  4  0
V    7 *
V    8 *
M  END

> <ATOMTYPES> 
C.ar
C.ar
C.ar
C.ar
C.ar
C.ar

> <BRANCH @atom-number eligible-atmtype-to-connect> 
5 C.3
6 C.3


> <fragments similar> 
/content/test-9070-output/output-chop-comb/b-CHEMBL9070.mol2-003.sdf
/content/test-9070-output/output-chop-comb/b-CHEMBL9070.mol2-004.sdf

$$$$
