b-CHEMBL9070.mol2-000.sdf
     RDKit          3D

  8  7  0  0  0  0  0  0  0  0999 V2000
    1.7229   -2.2287   -3.9371 O   0  0  0  0  0  0  0  0  0  0  0  0
    2.5368   -4.0293   -3.1922 O   0  0  0  0  0  0  0  0  0  0  0  0
    1.3486   -0.5704   -2.2694 O   0  0  0  0  0  0  0  0  0  0  0  0
    1.8685   -3.4861   -0.6008 C   0  0  0  0  0  0  0  0  0  0  0  0
   -0.2961   -3.5154   -1.8484 C   0  0  0  0  0  0  0  0  0  0  0  0
    1.8272   -3.0493   -3.0415 C   0  0  0  0  0  0  0  0  0  0  0  0
    0.9082   -1.3782   -1.4862 C   0  0  0  0  0  0  0  0  0  0  0  0
    1.0791   -2.8524   -1.7482 C   0  0  0  0  0  0  0  0  0  0  0  0
  1  6  1  0
  2  6  2  0
  3  7  2  0
  4  8  1  0
  5  8  1  0
  8  6  1  0
  7  8  1  0
V    9 *
V   10 *
V   11 *
M  END

> <ATOMTYPES> 
O.3
O.2
O.2
C.3
C.3
C.2
C.2
C.3

> <BRANCH @atom-number eligible-atmtype-to-connect> 
4 C.ar
5 C.ar
7 O.3


> <fragments similar> 
/content/test-9070-output/output-chop-comb/b-CHEMBL9070.mol2-000.sdf
$$$$
