@<TRIPOS>MOLECULE
*****
 56 57 0 0 0
SMALL
GASTEIGER

@<TRIPOS>ATOM
      1 O           1.7229   -2.2287   -3.9371 O.3     1  LIG1       -0.4798
      2 O           8.0101   -3.2057    1.1345 O.3     1  LIG1       -0.3199
      3 O           9.4066   -1.0655    1.2549 O.3     1  LIG1       -0.3199
      4 O          -5.6402   -1.5959   -4.8118 O.3     1  LIG1       -0.3199
      5 O          -5.8076   -1.0843   -7.3129 O.3     1  LIG1       -0.3199
      6 C           0.1411    0.4489   -0.1983 C.3     1  LIG1        0.0817
      7 F           7.7967   -1.2523   -1.3818 F       1  LIG1       -0.1866
      8 F           6.9050    0.4008   -0.0814 F       1  LIG1       -0.1866
      9 F          -3.3419    0.2626   -5.9950 F       1  LIG1       -0.1866
     10 F          -2.6406   -1.4003   -7.3957 F       1  LIG1       -0.1866
     11 O           2.5368   -4.0293   -3.1922 O.2     1  LIG1       -0.2497
     12 O           1.3486   -0.5704   -2.2694 O.2     1  LIG1       -0.2496
     13 O           7.1977   -1.2253    2.5357 O.2     1  LIG1       -0.2522
     14 O          -4.8993   -3.3433   -6.5273 O.2     1  LIG1       -0.2522
     15 C           1.8685   -3.4861   -0.6008 C.3     1  LIG1       -0.0012
     16 C          -0.2961   -3.5154   -1.8484 C.3     1  LIG1       -0.0012
     17 O           0.2666   -0.9626   -0.3828 O.3     1  LIG1       -0.4671
     18 C           4.2900   -3.3430   -1.2178 C.ar    1  LIG1       -0.0581
     19 C           3.3972   -1.7205    0.2997 C.ar    1  LIG1       -0.0581
     20 C          -1.8728   -1.7886   -2.7413 C.ar    1  LIG1       -0.0581
     21 C          -0.9830   -3.4179   -4.2533 C.ar    1  LIG1       -0.0581
     22 C           5.5325   -2.7440   -1.1273 C.ar    1  LIG1       -0.0521
     23 C           4.6407   -1.1240    0.3936 C.ar    1  LIG1       -0.0521
     24 C          -2.5859   -1.2161   -3.7779 C.ar    1  LIG1       -0.0521
     25 C          -1.6995   -2.8480   -5.2891 C.ar    1  LIG1       -0.0521
     26 C           1.8272   -3.0493   -3.0415 C.2     1  LIG1        0.3225
     27 C           0.9082   -1.3782   -1.4862 C.2     1  LIG1        0.3246
     28 C           3.2230   -2.8330   -0.5021 C.ar    1  LIG1       -0.0457
     29 C          -1.0735   -2.8913   -2.9784 C.ar    1  LIG1       -0.0457
     30 C           5.7079   -1.6346   -0.3214 C.ar    1  LIG1        0.0328
     31 C          -2.4995   -1.7459   -5.0517 C.ar    1  LIG1        0.0328
     32 C           7.0627   -0.9821   -0.2219 C.3     1  LIG1        0.3711
     33 C          -3.2777   -1.1224   -6.1816 C.3     1  LIG1        0.3711
     34 C           1.0791   -2.8524   -1.7482 C.3     1  LIG1        0.1714
     35 P           7.9505   -1.6429    1.2267 P.3     1  LIG1        0.4007
     36 P          -4.9655   -1.8107   -6.2094 P.3     1  LIG1        0.4007
     37 H           2.0112   -1.3476   -3.8011 H       1  LIG1        0.2951
     38 H           8.4825   -3.5573    1.9053 H       1  LIG1        0.2199
     39 H           9.8790   -1.4171    2.0257 H       1  LIG1        0.2199
     40 H          -6.5383   -1.9621   -4.8266 H       1  LIG1        0.2199
     41 H          -6.7057   -1.4505   -7.3277 H       1  LIG1        0.2199
     42 H          -0.3862    0.6441    0.7120 H       1  LIG1        0.0661
     43 H          -0.3991    0.8695   -1.0206 H       1  LIG1        0.0661
     44 H           1.1147    0.8900   -0.1482 H       1  LIG1        0.0661
     45 H           1.3374   -3.3463    0.3175 H       1  LIG1        0.0329
     46 H           1.9899   -4.5328   -0.7868 H       1  LIG1        0.0329
     47 H          -0.1747   -4.5621   -2.0344 H       1  LIG1        0.0329
     48 H          -0.8272   -3.3755   -0.9301 H       1  LIG1        0.0329
     49 H           4.1590   -4.1710   -1.8197 H       1  LIG1        0.0620
     50 H           2.5989   -1.3353    0.8282 H       1  LIG1        0.0620
     51 H          -1.9371   -1.3928   -1.7904 H       1  LIG1        0.0620
     52 H          -0.3805   -4.2365   -4.4318 H       1  LIG1        0.0620
     53 H           6.3292   -3.1250   -1.6614 H       1  LIG1        0.0622
     54 H           4.7723   -0.2975    0.9975 H       1  LIG1        0.0622
     55 H          -3.1828   -0.3931   -3.6008 H       1  LIG1        0.0622
     56 H          -1.6372   -3.2453   -6.2395 H       1  LIG1        0.0622
@<TRIPOS>BOND
     1     1    26    1
     2     2    35    1
     3     3    35    1
     4     4    36    1
     5     5    36    1
     6     6    17    1
     7     7    32    1
     8     8    32    1
     9     9    33    1
    10    10    33    1
    11    11    26    2
    12    12    27    2
    13    13    35    2
    14    14    36    2
    15    15    28    1
    16    15    34    1
    17    16    29    1
    18    16    34    1
    19    17    27    1
    20    18    22   ar
    21    18    28   ar
    22    19    23   ar
    23    19    28   ar
    24    20    24   ar
    25    20    29   ar
    26    21    25   ar
    27    21    29   ar
    28    22    30   ar
    29    23    30   ar
    30    24    31   ar
    31    25    31   ar
    32    26    34    1
    33    27    34    1
    34    30    32    1
    35    31    33    1
    36    32    35    1
    37    33    36    1
    38     1    37    1
    39     2    38    1
    40     3    39    1
    41     4    40    1
    42     5    41    1
    43     6    42    1
    44     6    43    1
    45     6    44    1
    46    15    45    1
    47    15    46    1
    48    16    47    1
    49    16    48    1
    50    18    49    1
    51    19    50    1
    52    20    51    1
    53    21    52    1
    54    22    53    1
    55    23    54    1
    56    24    55    1
    57    25    56    1
