l-CHEMBL9070.mol2-000.sdf
     RDKit          3D

  3  2  0  0  0  0  0  0  0  0999 V2000
    0.1411    0.4489   -0.1983 C   0  0  0  0  0  0  0  0  0  0  0  0
    0.2666   -0.9626   -0.3828 O   0  0  0  0  0  0  0  0  0  0  0  0
    0.9082   -1.3782   -1.4862 C   0  0  0  0  0  0  0  0  0  0  0  0
  1  2  1  0
  2  3  1  0
M  END

> <MAX-NUMBER-Of-CONTACTS ATOMTYPES> 
0 C.3
0 O.3
2 C.2

$$$$
